Circuit: * D:\Users\Morgan Diepart\Documents\GitHub\FencingTester\LTSpice - Simulations\bargraph-mosfet.asc

WARNING: Less than two connections to node N030.  This node is used by R:M1:2.
Direct Newton iteration failed to find .op point.  (Use ".option noopiter" to skip.)
Starting Gmin stepping
Gmin = 10
Gmin = 1.07374
Gmin = 0.115292
Gmin = 0.0123794
Gmin = 0.00132923
Gmin = 0.000142725
Gmin = 1.5325e-005
Gmin = 1.6455e-006
Gmin = 1.76685e-007
Gmin = 1.89714e-008
Gmin = 2.03704e-009
Gmin = 2.18725e-010
Gmin = 2.34854e-011
Gmin = 2.52173e-012
Gmin = 2.70769e-013
Gmin = 0
Gmin stepping succeeded in finding the operating point.


Date: Fri Oct 26 02:22:54 2018
Total elapsed time: 0.212 seconds.

tnom = 27
temp = 27
method = modified trap
totiter = 2571
traniter = 2096
tranpoints = 1049
accept = 1049
rejected = 0
matrix size = 102
fillins = 40
solver = Normal
Matrix Compiler1: 10.37 KB object code size  2.1/0.9/[0.7]
Matrix Compiler2: 9.88 KB object code size  1.6/1.5/[0.8]

