Circuit: * D:\Users\Morgan Diepart\Documents\GitHub\FencingTester\LTSpice - Simulations\bargraph-bjt.asc

Direct Newton iteration for .op point succeeded.

Date: Sat Oct 27 14:40:32 2018
Total elapsed time: 0.144 seconds.

tnom = 27
temp = 27
method = modified trap
totiter = 2103
traniter = 2088
tranpoints = 1045
accept = 1045
rejected = 0
matrix size = 82
fillins = 10
solver = Normal
Thread vector: 4.9/3.6[2] 2.1/1.5[2] 0.7/0.8[1] 0.2/0.9[1]  2592/500
Matrix Compiler1: 5.92 KB object code size  1.5/0.8/[0.5]
Matrix Compiler2: 6.94 KB object code size  0.7/0.9/[0.4]

