Circuit: * D:\Users\Morgan Diepart\Documents\GitHub\FencingTester\LTSpice - Simulations\bargraph-mosfet.asc

Direct Newton iteration for .op point succeeded.

Date: Sat Oct 27 15:44:14 2018
Total elapsed time: 0.166 seconds.

tnom = 27
temp = 27
method = modified trap
totiter = 2165
traniter = 2116
tranpoints = 1059
accept = 1059
rejected = 0
matrix size = 112
fillins = 70
solver = Normal
Matrix Compiler1: 10.60 KB object code size  2.6/1.3/[0.6]
Matrix Compiler2: 10.50 KB object code size  0.9/1.4/[0.5]

