Circuit: * D:\Users\Morgan Diepart\Documents\GitHub\FencingTester\LTSpice - Simulations\Draft1.asc

Direct Newton iteration for .op point succeeded.

Date: Sun Oct 28 15:27:28 2018
Total elapsed time: 0.037 seconds.

tnom = 27
temp = 27
method = modified trap
totiter = 2102
traniter = 2094
tranpoints = 1048
accept = 1048
rejected = 0
matrix size = 4
fillins = 0
solver = Normal
Matrix Compiler1: 118 bytes object code size  0.1/0.0/[0.0]
Matrix Compiler2: 242 bytes object code size  0.0/0.0/[0.0]

